testData/IEEE300/testCases/IEEE300Bus_modified_noHVDC_v2_scalepercent_10.raw
0,   100.00, 30, 0, 1,  60.00     / PSS(R)E 30 RAW created by rawd30  MON, NOV 23 2020  14:23
 00/00/01                      100.0  0    0
 0
     1,'1           ', 115.0000,1,     0.000,     0.000,   1,   1,1.02435,  11.0909,   1
     2,'2           ', 115.0000,1,     0.000,     0.000,   1,   1,1.03333,  12.9853,   1
     3,'3           ', 230.0000,1,     0.000,     0.000,   1,   1,0.99244,  11.7977,   1
     4,'4           ', 345.0000,1,     0.000,     0.000,   1,   1,1.02465,   9.5802,   1
     5,'5           ', 115.0000,1,     0.000,     0.000,   1,   1,1.01410,   9.6772,   1
     6,'6           ', 115.0000,1,     0.000,     0.000,   1,   1,1.02826,  12.1671,   1
     7,'7           ', 230.0000,1,     0.000,     0.000,   1,   1,0.98900,  11.3086,   1
     8,'8           ', 115.0000,1,     0.000,     0.000,   1,   1,1.01530,   6.9317,   1
     9,'9           ', 115.0000,1,     0.000,     0.000,   1,   1,0.99928,   7.6072,   1
    10,'10          ', 230.0000,1,     0.000,     0.000,   1,   1,1.02050,   5.9411,   1
    11,'11          ', 115.0000,1,     0.000,     0.000,   1,   1,1.00430,   7.1378,   1
    12,'12          ', 230.0000,1,     0.000,     0.000,   1,   1,0.99410,  10.2294,   1
    13,'13          ', 115.0000,1,     0.000,     0.000,   1,   1,0.99628,   3.8055,   1
    14,'14          ', 115.0000,1,     0.000,     0.000,   1,   1,0.99132,  -1.2108,   1
    15,'15          ', 115.0000,1,     0.000,     0.000,   1,   1,1.02644,  -5.5683,   1
    16,'16          ', 345.0000,1,     0.000,     0.000,   1,   1,1.02167,   1.1119,   1
    17,'17          ', 115.0000,1,     0.000,     0.000,   1,   1,1.05774, -10.6557,   1
    19,'19          ', 230.0000,1,     0.000,     0.000,   1,   1,0.97737,   5.5700,   1
    20,'20          ', 115.0000,1,     0.000,     0.000,   1,   1,1.00099,   1.7015,   1
    21,'21          ', 230.0000,1,     0.000,     0.000,   1,   1,0.97209,   6.2138,   1
    22,'22          ', 115.0000,1,     0.000,     0.000,   1,   1,0.99415,   2.2794,   1
    23,'23          ', 115.0000,1,     0.000,     0.000,   1,   1,1.04929,   8.9213,   1
    24,'24          ', 230.0000,1,     0.000,     0.000,   1,   1,1.00384,  11.1870,   1
    25,'25          ', 115.0000,1,     0.000,     0.000,   1,   1,1.01944,   6.1602,   1
    26,'26          ', 115.0000,1,     0.000,     0.000,   1,   1,0.99209,   2.6274,   1
    27,'27          ', 115.0000,1,     0.000,     0.000,   1,   1,0.96760,  -0.9249,   1
    33,'33          ', 115.0000,1,     0.000,     0.000,   1,   1,1.01665, -10.1206,   1
    34,'34          ', 345.0000,1,     0.000,     0.000,   1,   1,1.03200,  -5.1343,   1
    35,'35          ', 115.0000,1,     0.000,     0.000,   1,   1,0.97398, -24.1918,   1
    36,'36          ', 230.0000,1,     0.000,     0.000,   1,   1,0.99555, -20.7014,   1
    37,'37          ', 115.0000,1,     0.000,     0.000,   1,   1,1.01285,  -9.5191,   1
    38,'38          ', 115.0000,1,     0.000,     0.000,   1,   1,1.01211, -10.7653,   1
    39,'39          ', 345.0000,1,     0.000,     0.000,   1,   1,1.04568,  -2.6876,   1
    40,'40          ', 115.0000,1,     0.000,     0.000,   1,   1,1.01419, -11.0061,   1
    41,'41          ', 115.0000,1,     0.000,     0.000,   1,   1,1.02236,  -8.4533,   1
    42,'42          ', 345.0000,1,     0.000,     0.000,   1,   1,1.03572,  -4.5292,   1
    43,'43          ', 115.0000,1,     0.000,     0.000,   1,   1,0.99071, -15.2655,   1
    44,'44          ', 115.0000,1,     0.000,     0.000,   1,   1,0.99975, -15.8021,   1
    45,'45          ', 230.0000,1,     0.000,     0.000,   1,   1,1.01260, -12.6944,   1
    46,'46          ', 345.0000,1,     0.000,     0.000,   1,   1,1.02476,  -9.1952,   1
    47,'47          ', 115.0000,1,     0.000,     0.000,   1,   1,0.96705, -21.9012,   1
    48,'48          ', 115.0000,1,     0.000,     0.000,   1,   1,0.99447, -14.4109,   1
    49,'49          ', 115.0000,1,     0.000,     0.000,   1,   1,1.04515,  -2.2209,   1
    51,'51          ', 115.0000,1,     0.000,     0.000,   1,   1,1.01972,  -6.7883,   1
    52,'52          ', 115.0000,1,     0.000,     0.000,   1,   1,0.98915, -10.6005,   1
    53,'53          ', 115.0000,1,     0.000,     0.000,   1,   1,0.98555, -16.2169,   1
    54,'54          ', 115.0000,1,     0.000,     0.000,   1,   1,0.99604, -14.7665,   1
    55,'55          ', 115.0000,1,     0.000,     0.000,   1,   1,1.00833, -10.7578,   1
    57,'57          ', 115.0000,1,     0.000,     0.000,   1,   1,1.02997,  -6.4442,   1
    58,'58          ', 115.0000,1,     0.000,     0.000,   1,   1,0.98516,  -4.4621,   1
    59,'59          ', 115.0000,1,     0.000,     0.000,   1,   1,0.97148,  -3.7479,   1
    60,'60          ', 230.0000,1,     0.000,     0.000,   1,   1,1.01811,  -7.6176,   1
    61,'61          ', 115.0000,1,     0.000,     0.000,   1,   1,0.98503,  -1.7516,   1
    62,'62          ', 230.0000,1,     0.000,     0.000,   1,   1,1.01273,   0.6381,   1
    63,'63          ', 115.0000,1,     0.000,     0.000,   1,   1,0.95829, -17.7341,   1
    64,'64          ', 230.0000,1,     0.000,     0.000,   1,   1,0.94432, -12.6027,   1
    69,'69          ', 115.0000,1,     0.000,     0.000,   1,   1,0.95454, -23.9156,   1
    70,'70          ', 115.0000,1,     0.000,     0.000,   1,   1,0.93980, -34.7223,   1
    71,'71          ', 115.0000,1,     0.000,     0.000,   1,   1,0.97254, -28.8159,   1
    72,'72          ', 115.0000,1,     0.000,     0.000,   1,   1,0.96534, -26.1156,   1
    73,'73          ', 115.0000,1,     0.000,     0.000,   1,   1,0.97009, -24.3338,   1
    74,'74          ', 230.0000,1,     0.000,     0.000,   1,   1,0.98771, -20.2203,   1
    76,'76          ', 115.0000,1,     0.000,     0.000,   1,   1,0.96319, -25.1925,   1
    77,'77          ', 115.0000,1,     0.000,     0.000,   1,   1,0.98130, -23.2567,   1
    78,'78          ', 115.0000,1,     0.000,     0.000,   1,   1,0.98745, -22.2608,   1
    79,'79          ', 115.0000,1,     0.000,     0.000,   1,   1,0.97723, -23.2968,   1
    80,'80          ', 115.0000,1,     0.000,     0.000,   1,   1,0.98321, -23.0762,   1
    81,'81          ', 345.0000,1,     0.000,     0.000,   1,   1,1.02678, -16.3759,   1
    84,'84          ', 115.0000,1,     0.000,     0.000,   1,   1,1.02499, -14.5844,   1
    85,'85          ', 230.0000,1,     0.000,     0.000,   1,   1,0.98374, -15.8572,   1
    86,'86          ', 230.0000,1,     0.000,     0.000,   1,   1,0.98551, -11.8930,   1
    87,'87          ', 230.0000,1,     0.000,     0.000,   1,   1,0.98489,  -4.5440,   1
    88,'88          ', 230.0000,1,     0.000,     0.000,   1,   1,1.00819, -18.8443,   1
    89,'89          ', 115.0000,1,     0.000,     0.000,   1,   1,1.02666,  -8.7184,   1
    90,'90          ', 115.0000,1,     0.000,     0.000,   1,   1,1.02142,  -9.0951,   1
    91,'91          ', 115.0000,1,     0.000,     0.000,   1,   1,1.05200,  -6.6502,   1
    92,'92          ', 115.0000,1,     0.000,     0.000,   1,   1,1.05200,  -3.2621,   1
    94,'94          ', 115.0000,1,     0.000,     0.000,   1,   1,0.98762,  -6.4453,   1
    97,'97          ', 115.0000,1,     0.000,     0.000,   1,   1,1.01597, -10.8883,   1
    98,'98          ', 115.0000,1,     0.000,     0.000,   1,   1,1.00000, -12.4357,   1
    99,'99          ', 115.0000,1,     0.000,     0.000,   1,   1,0.98872, -18.7709,   1
   100,'100         ', 115.0000,1,     0.000,     0.000,   1,   1,1.00406, -12.2308,   1
   102,'102         ', 115.0000,1,     0.000,     0.000,   1,   1,0.99792, -13.0839,   1
   103,'103         ', 115.0000,1,     0.000,     0.000,   1,   1,1.02605,  -9.6917,   1
   104,'104         ', 115.0000,1,     0.000,     0.000,   1,   1,0.99337, -15.4410,   1
   105,'105         ', 115.0000,1,     0.000,     0.000,   1,   1,1.01850, -10.7001,   1
   107,'107         ', 115.0000,1,     0.000,     0.000,   1,   1,1.00498, -14.2060,   1
   108,'108         ', 115.0000,1,     0.000,     0.000,   1,   1,0.99000, -18.7725,   1
   109,'109         ', 115.0000,1,     0.000,     0.000,   1,   1,0.96721, -25.1050,   1
   110,'110         ', 115.0000,1,     0.000,     0.000,   1,   1,0.96591, -23.6394,   1
   112,'112         ', 115.0000,1,     0.000,     0.000,   1,   1,0.96413, -27.8269,   1
   113,'113         ', 115.0000,1,     0.000,     0.000,   1,   1,0.95916, -24.3719,   1
   114,'114         ', 115.0000,1,     0.000,     0.000,   1,   1,0.96654, -27.6851,   1
   115,'115         ', 115.0000,1,     0.000,     0.000,   2,   2,0.92111,  12.2202,   1
   116,'116         ', 115.0000,1,     0.000,     0.000,   2,   2,1.03526,  19.4980,   1
   117,'117         ', 115.0000,1,     0.000,   357.500,   2,   2,0.90769,  26.5316,   1
   118,'118         ', 115.0000,1,     0.000,     0.000,   2,   2,0.90140,  27.7288,   1
   119,'119         ', 115.0000,1,     0.000,     0.000,   2,   2,1.04337,  43.3316,   1
   120,'120         ', 115.0000,1,     0.000,    60.500,   2,   2,1.01830,  38.1982,   1
   121,'121         ', 115.0000,1,     0.000,     0.000,   2,   2,0.84449,  15.4645,   1
   122,'122         ', 115.0000,1,     0.000,     0.000,   2,   2,0.90378,   9.9554,   1
   123,'123         ', 115.0000,1,     0.000,     0.000,   2,   2,0.97148,   5.1146,   1
   124,'124         ', 115.0000,1,     0.000,     0.000,   2,   2,1.02328,  16.2319,   1
   125,'125         ', 115.0000,1,     0.000,     0.000,   2,   2,1.01026,  -4.8032,   1
   126,'126         ', 115.0000,1,     0.000,     0.000,   2,   2,0.97431,   0.0983,   1
   127,'127         ', 230.0000,1,     0.000,     0.000,   2,   2,0.98697,  -4.8167,   1
   128,'128         ', 230.0000,1,     0.000,     0.000,   2,   2,0.99434,  -2.1859,   1
   129,'129         ', 230.0000,1,     0.000,     0.000,   2,   2,0.99396,  -1.3308,   1
   130,'130         ', 230.0000,1,     0.000,     0.000,   2,   2,1.01214,  10.6870,   1
   131,'131         ', 230.0000,1,     0.000,     0.000,   2,   2,0.98111,  11.1826,   1
   132,'132         ', 230.0000,1,     0.000,     0.000,   2,   2,0.99975,   8.6369,   1
   133,'133         ', 230.0000,1,     0.000,     0.000,   2,   2,0.99612,  -4.5517,   1
   134,'134         ', 230.0000,1,     0.000,     0.000,   2,   2,1.01482,  -3.6811,   1
   135,'135         ', 230.0000,1,     0.000,     0.000,   2,   2,1.01341,  -3.6716,   1
   136,'136         ', 230.0000,1,     0.000,     0.000,   2,   2,1.04358,   2.5597,   1
   137,'137         ', 230.0000,1,     0.000,     0.000,   2,   2,1.04178,  -4.2539,   1
   138,'138         ', 230.0000,1,     0.000,     0.000,   2,   2,1.05496, -14.6235,   1
   139,'139         ', 115.0000,1,     0.000,     0.000,   2,   2,1.00649,  -6.1464,   1
   140,'140         ', 230.0000,1,     0.000,     0.000,   2,   2,1.03587,  -6.1052,   1
   141,'141         ', 230.0000,1,     0.000,     0.000,   2,   2,1.05099,  -1.8854,   1
   142,'142         ', 230.0000,1,     0.000,     0.000,   2,   2,1.00343,  -4.0324,   1
   143,'143         ', 230.0000,1,     0.000,     0.000,   2,   2,1.04348,   4.2016,   1
   144,'144         ', 230.0000,1,     0.000,     0.000,   2,   2,1.01292,   0.9167,   1
   145,'145         ', 230.0000,1,     0.000,     0.000,   2,   2,0.99982,  -1.0389,   1
   146,'146         ', 230.0000,1,     0.000,     0.000,   2,   2,1.05279,   3.4514,   1
   147,'147         ', 230.0000,1,     0.000,     0.000,   2,   2,1.05280,   7.8249,   1
   148,'148         ', 230.0000,1,     0.000,     0.000,   2,   2,1.05313,  -0.0684,   1
   149,'149         ', 230.0000,1,     0.000,     0.000,   2,   2,1.07349,   5.3429,   1
   150,'150         ', 230.0000,1,     0.000,     0.000,   2,   2,0.98158,  11.4900,   1
   151,'151         ', 230.0000,1,     0.000,     0.000,   2,   2,0.99968,   9.2047,   1
   152,'152         ', 230.0000,1,     0.000,     0.000,   2,   2,1.05350,  10.7545,   1
   153,'153         ', 230.0000,1,     0.000,     0.000,   2,   2,1.04350,  11.2052,   1
   154,'154         ', 115.0000,1,     0.000,    37.950,   2,   2,0.96458,  -2.6895,   1
   155,'155         ', 230.0000,1,     0.000,     0.000,   2,   2,1.00760,   6.3220,   1
   156,'156         ', 115.0000,1,     0.000,     0.000,   2,   2,0.96299,   4.5411,   1
   157,'157         ', 230.0000,1,     0.000,     0.000,   2,   2,0.91836,  11.9899,   1
   158,'158         ', 230.0000,1,     0.000,     0.000,   2,   2,0.94409,  11.6506,   1
   159,'159         ', 230.0000,1,     0.000,     0.000,   2,   2,0.90738,  16.4675,   1
   160,'160         ', 230.0000,1,     0.000,     0.000,   2,   2,0.97760,  14.1103,   1
   161,'161         ', 230.0000,1,     0.000,     0.000,   2,   2,1.03190,   9.1754,   1
   162,'162         ', 230.0000,1,     0.000,     0.000,   2,   2,0.97298,  19.5900,   1
   163,'163         ', 230.0000,1,     0.000,     0.000,   2,   2,1.02676,   1.0830,   1
   164,'164         ', 230.0000,1,     0.000,  -233.200,   2,   2,0.96636,   9.3946,   1
   165,'165         ', 230.0000,1,     0.000,     0.000,   2,   2,0.98713,  28.5223,   1
   166,'166         ', 230.0000,1,     0.000,  -113.300,   2,   2,0.98866,  32.9562,   1
   167,'167         ', 230.0000,1,     0.000,     0.000,   2,   2,0.95709,  -4.0933,   1
   168,'168         ', 230.0000,1,     0.000,     0.000,   2,   2,0.99439,  -2.2145,   1
   169,'169         ', 230.0000,1,     0.000,     0.000,   2,   2,0.97662,  -4.0025,   1
   170,'170         ', 115.0000,1,     0.000,     0.000,   2,   2,0.92899,   5.0625,   1
   171,'171         ', 115.0000,1,     0.000,     0.000,   2,   2,0.98288,  -9.5137,   1
   172,'172         ', 115.0000,1,     0.000,     0.000,   2,   2,1.01593,  -8.8313,   1
   173,'173         ', 115.0000,1,     0.000,    58.300,   2,   2,0.96424, -15.7915,   1
   174,'174         ', 115.0000,1,     0.000,     0.000,   2,   2,1.05832,  -4.8702,   1
   175,'175         ', 115.0000,1,     0.000,     0.000,   2,   2,0.95683,  -9.0920,   1
   176,'176         ', 115.0000,1,     0.000,     0.000,   2,   2,1.05220,   4.1704,   1
   177,'177         ', 115.0000,1,     0.000,     0.000,   2,   2,1.00769,  -0.3200,   1
   178,'178         ', 115.0000,1,     0.000,     0.000,   2,   2,0.92327,  -8.1996,   1
   179,'179         ', 115.0000,1,     0.000,    49.500,   2,   2,0.95193, -11.2898,   1
   180,'180         ', 115.0000,1,     0.000,     0.000,   2,   2,0.96731,  -4.3102,   1
   181,'181         ', 230.0000,1,     0.000,     0.000,   2,   2,1.04608,  -4.8142,   1
   182,'182         ', 230.0000,1,     0.000,     0.000,   2,   2,1.03752,  -6.9021,   1
   183,'183         ', 115.0000,1,     0.000,     0.000,   2,   2,0.97084,   7.4636,   1
   184,'184         ', 230.0000,1,     0.000,     0.000,   2,   2,1.03512,  -2.3230,   1
   185,'185         ', 230.0000,1,     0.000,     0.000,   2,   2,1.05220,   0.4658,   1
   186,'186         ', 230.0000,1,     0.000,     0.000,   2,   2,1.06497,  -0.6303,   1
   187,'187         ', 230.0000,1,     0.000,     0.000,   2,   2,1.06496,  -1.7587,   1
   188,'188         ', 230.0000,1,     0.000,     0.000,   2,   2,1.04845,  -4.0803,   1
   189,'189         ',  66.0000,1,     0.000,     0.000,   3,   3,0.99140, -23.8854,   1
   190,'190         ', 345.0000,1,     0.000,  -165.000,   3,   3,1.05509, -17.4867,   1
   191,'191         ', 230.0000,1,     0.000,     0.000,   3,   3,1.04342,  21.2608,   1
   192,'192         ', 230.0000,1,     0.000,     0.000,   3,   3,0.90929,  -5.7648,   1
   193,'192         ',  66.0000,1,     0.000,     0.000,   3,   3,0.98196, -24.3666,   1
   194,'194         ', 345.0000,1,     0.000,     0.000,   3,   3,1.04256, -16.3015,   1
   195,'195         ', 345.0000,1,     0.000,     0.000,   3,   3,1.03079, -18.0644,   1
   196,'196         ', 115.0000,1,     0.000,     0.000,   3,   3,0.96301, -23.0869,   1
   197,'197         ', 115.0000,1,     0.000,     0.000,   3,   3,0.98627, -21.3432,   1
   198,'198         ', 115.0000,1,     0.000,     0.000,   3,   3,1.01499, -17.8829,   1
   199,'199         ', 115.0000,1,     0.000,     0.000,   3,   3,0.94507, -23.8965,   1
   200,'200         ', 115.0000,1,     0.000,     0.000,   3,   3,0.94790, -23.7378,   1
   201,'201         ',  66.0000,1,     0.000,     0.000,   1,   1,0.95787, -26.0582,   1
   202,'202         ',  66.0000,1,     0.000,     0.000,   3,   3,0.98447, -23.1465,   1
   203,'203         ', 115.0000,1,     0.000,     0.000,   3,   3,1.00064, -19.8386,   1
   204,'204         ',  66.0000,1,     0.000,     0.000,   3,   3,0.95901, -24.2129,   1
   205,'205         ',  66.0000,1,     0.000,     0.000,   3,   3,0.97383, -24.4845,   1
   206,'206         ',  66.0000,1,     0.000,     0.000,   3,   3,0.99017, -26.1213,   1
   207,'207         ',  66.0000,1,     0.000,     0.000,   1,   1,1.00539, -26.2625,   1
   208,'208         ',  66.0000,1,     0.000,     0.000,   3,   3,0.98571, -24.4998,   1
   209,'209         ',  66.0000,1,     0.000,     0.000,   3,   3,0.99443, -23.6282,   1
   210,'210         ', 115.0000,1,     0.000,     0.000,   3,   3,0.97380, -21.8890,   1
   211,'211         ', 115.0000,1,     0.000,     0.000,   3,   3,0.99710, -20.9181,   1
   212,'212         ', 138.0000,1,     0.000,     0.000,   3,   3,1.00870, -19.9676,   1
   213,'213         ',  16.5000,1,     0.000,     0.000,   3,   3,1.01000,  -7.6706,   1
   214,'214         ', 138.0000,1,     0.000,     0.000,   3,   3,0.99022, -14.1862,   1
   215,'215         ', 138.0000,1,     0.000,     0.000,   3,   3,0.98246, -17.1991,   1
   216,'216         ', 138.0000,1,     0.000,     0.000,   3,   3,0.96853, -19.6940,   1
   217,'217         ', 138.0000,1,     0.000,     0.000,   3,   3,1.01758, -19.2278,   1
   218,'218         ', 138.0000,1,     0.000,     0.000,   3,   3,1.00347, -19.6805,   1
...
 0 /End of Bus data, Begin Load data
     1,'1 ',1,   1,   1,    99.000,    53.900,     0.000,     0.000,     0.000,     0.000,   1
     2,'1 ',1,   1,   1,    61.600,    16.500,     0.000,     0.000,     0.000,     0.000,   1
     3,'1 ',1,   1,   1,    22.000,     0.000,     0.000,     0.000,     0.000,     0.000,   1
     5,'1 ',1,   1,   1,   388.300,   143.000,     0.000,     0.000,     0.000,     0.000,   1
     6,'1 ',1,   1,   1,   132.000,    45.100,     0.000,     0.000,     0.000,     0.000,   1
     8,'1 ',1,   1,   1,    63.800,    15.400,     0.000,     0.000,     0.000,     0.000,   1
     9,'1 ',1,   1,   1,   105.600,    47.300,     0.000,     0.000,     0.000,     0.000,   1
    10,'1 ',1,   1,   1,   162.800,    36.300,     0.000,     0.000,     0.000,     0.000,   1
    11,'1 ',1,   1,   1,    91.300,    23.100,     0.000,     0.000,     0.000,     0.000,   1
    13,'1 ',1,   1,   1,    63.800,    11.000,     0.000,     0.000,     0.000,     0.000,   1
    14,'1 ',1,   1,   1,   176.000,    66.000,     0.000,     0.000,     0.000,     0.000,   1
    15,'1 ',1,   1,   1,   139.370,    25.300,     0.000,     0.000,     0.000,     0.000,   1
    17,'1 ',1,   1,   1,   617.100,   242.000,     0.000,     0.000,     0.000,     0.000,   1
    20,'1 ',1,   1,   1,   654.500,   132.000,     0.000,     0.000,     0.000,     0.000,   1
    21,'1 ',1,   1,   1,    84.700,     1.100,     0.000,     0.000,     0.000,     0.000,   1
    22,'1 ',1,   1,   1,    89.100,    25.300,     0.000,     0.000,     0.000,     0.000,   1
    23,'1 ',1,   1,   1,    23.100,     7.700,     0.000,     0.000,     0.000,     0.000,   1
    25,'1 ',1,   1,   1,    49.500,    13.200,     0.000,     0.000,     0.000,     0.000,   1
    26,'1 ',1,   1,   1,    30.800,     9.900,     0.000,     0.000,     0.000,     0.000,   1
    27,'1 ',1,   1,   1,    75.900,    14.300,     0.000,     0.000,     0.000,     0.000,   1
    33,'1 ',1,   1,   1,    60.500,     6.600,     0.000,     0.000,     0.000,     0.000,   1
    37,'1 ',1,   1,   1,    93.500,    35.200,     0.000,     0.000,     0.000,     0.000,   1
    38,'1 ',1,   1,   1,   170.500,    19.800,     0.000,     0.000,     0.000,     0.000,   1
    40,'1 ',1,   1,   1,    50.600,   -23.100,     0.000,     0.000,     0.000,     0.000,   1
    41,'1 ',1,   1,   1,    94.600,     0.000,     0.000,     0.000,     0.000,     0.000,   1
    43,'1 ',1,   1,   1,    42.900,     9.900,     0.000,     0.000,     0.000,     0.000,   1
    44,'1 ',1,   1,   1,   214.500,    31.900,     0.000,     0.000,     0.000,     0.000,   1
    47,'1 ',1,   1,   1,    63.800,    12.980,     0.000,     0.000,     0.000,     0.000,   1
    48,'1 ',1,   1,   1,    45.100,    20.900,     0.000,     0.000,     0.000,     0.000,   1
    49,'1 ',1,   1,   1,   101.200,    28.600,     0.000,     0.000,     0.000,     0.000,   1
    51,'1 ',1,   1,   1,    -5.500,     5.500,     0.000,     0.000,     0.000,     0.000,   1
    52,'1 ',1,   1,   1,    67.100,    30.800,     0.000,     0.000,     0.000,     0.000,   1
    53,'1 ',1,   1,   1,    75.900,     3.300,     0.000,     0.000,     0.000,     0.000,   1
    54,'1 ',1,   1,   1,    11.000,     1.100,     0.000,     0.000,     0.000,     0.000,   1
    55,'1 ',1,   1,   1,    24.200,    11.000,     0.000,     0.000,     0.000,     0.000,   1
    57,'1 ',1,   1,   1,   107.800,    22.000,     0.000,     0.000,     0.000,     0.000,   1
    58,'1 ',1,   1,   1,    15.400,     1.100,     0.000,     0.000,     0.000,     0.000,   1
    59,'1 ',1,   1,   1,   239.800,   116.600,     0.000,     0.000,     0.000,     0.000,   1
    61,'1 ',1,   1,   1,   249.700,   121.000,     0.000,     0.000,     0.000,     0.000,   1
    63,'1 ',1,   1,   1,    77.000,    33.000,     0.000,     0.000,     0.000,     0.000,   1
    70,'1 ',1,   1,   1,    61.600,    22.000,     0.000,     0.000,     0.000,     0.000,   1
    71,'1 ',1,   1,   1,   127.600,    41.800,     0.000,     0.000,     0.000,     0.000,   1
    72,'1 ',1,   1,   1,    62.700,    20.900,     0.000,     0.000,     0.000,     0.000,   1
    73,'1 ',1,   1,   1,   246.400,    78.100,     0.000,     0.000,     0.000,     0.000,   1
    76,'1 ',1,   1,   1,   228.800,   117.700,     0.000,     0.000,     0.000,     0.000,   1
    77,'1 ',1,   1,   1,    81.400,    30.800,     0.000,     0.000,     0.000,     0.000,   1
    79,'1 ',1,   1,   1,    52.800,    15.400,     0.000,     0.000,     0.000,     0.000,   1
    80,'1 ',1,   1,   1,    30.800,     7.700,     0.000,     0.000,     0.000,     0.000,   1
    84,'1 ',1,   1,   1,    40.700,    14.300,     0.000,     0.000,     0.000,     0.000,   1
    89,'1 ',1,   1,   1,    48.620,     0.000,     0.000,     0.000,     0.000,     0.000,   1
    90,'1 ',1,   1,   1,    72.600,     0.000,     0.000,     0.000,     0.000,     0.000,   1
    91,'1 ',1,   1,   1,    19.140,     0.000,     0.000,     0.000,     0.000,     0.000,   1
    92,'1 ',1,   1,   1,    17.380,     0.000,     0.000,     0.000,     0.000,     0.000,   1
    94,'1 ',1,   1,   1,    66.330,     0.000,     0.000,     0.000,     0.000,     0.000,   1
    97,'1 ',1,   1,   1,    43.890,     0.000,     0.000,     0.000,     0.000,     0.000,   1
    98,'1 ',1,   1,   1,    73.370,     0.000,     0.000,     0.000,     0.000,     0.000,   1
    99,'1 ',1,   1,   1,    91.850,     0.000,     0.000,     0.000,     0.000,     0.000,   1
   102,'1 ',1,   1,   1,    85.580,     0.000,     0.000,     0.000,     0.000,     0.000,   1
   103,'1 ',1,   1,   1,    35.200,     0.000,     0.000,     0.000,     0.000,     0.000,   1
   104,'1 ',1,   1,   1,     9.460,     0.000,     0.000,     0.000,     0.000,     0.000,   1
   105,'1 ',1,   1,   1,    54.560,     0.000,     0.000,     0.000,     0.000,     0.000,   1
   107,'1 ',1,   1,   1,     5.060,     0.000,     0.000,     0.000,     0.000,     0.000,   1
   108,'1 ',1,   1,   1,   123.310,     0.000,     0.000,     0.000,     0.000,     0.000,   1
   109,'1 ',1,   1,   1,    33.770,     0.000,     0.000,     0.000,     0.000,     0.000,   1
   110,'1 ',1,   1,   1,    69.300,     0.000,     0.000,     0.000,     0.000,     0.000,   1
   112,'1 ',1,   1,   1,    21.560,     0.000,     0.000,     0.000,     0.000,     0.000,   1
   113,'1 ',1,   1,   1,    28.820,     0.000,     0.000,     0.000,     0.000,     0.000,   1
   114,'1 ',1,   1,   1,    20.020,     0.000,     0.000,     0.000,     0.000,     0.000,   1
   118,'1 ',1,   2,   2,    15.510,   715.000,     0.000,     0.000,     0.000,     0.000,   1
   119,'1 ',1,   2,   2,   110.330,    37.840,     0.000,     0.000,     0.000,     0.000,   1
   121,'1 ',1,   2,   2,   588.500,    60.500,     0.000,     0.000,     0.000,     0.000,   1
   122,'1 ',1,   2,   2,   252.010,    12.980,     0.000,     0.000,     0.000,     0.000,   1
   123,'1 ',1,   2,   2,    85.800,     1.540,     0.000,     0.000,     0.000,     0.000,   1
   124,'1 ',1,   2,   2,   304.040,    65.230,     0.000,     0.000,     0.000,     0.000,   1
   125,'1 ',1,   2,   2,   566.280,    90.970,     0.000,     0.000,     0.000,     0.000,   1
   126,'1 ',1,   2,   2,    63.690,     5.610,     0.000,     0.000,     0.000,     0.000,   1
   127,'1 ',1,   2,   2,   418.880,    40.700,     0.000,     0.000,     0.000,     0.000,   1
   135,'1 ',1,   2,   2,   186.120,    45.760,     0.000,     0.000,     0.000,     0.000,   1
   136,'1 ',1,   2,   2,    60.720,    20.020,     0.000,     0.000,     0.000,     0.000,   1
   137,'1 ',1,   2,   2,   300.960,   109.780,     0.000,     0.000,     0.000,     0.000,   1
   138,'1 ',1,   2,   2,   909.370,   148.720,     0.000,     0.000,     0.000,     0.000,   1
   139,'1 ',1,   2,   2,   654.500,    91.630,     0.000,     0.000,     0.000,     0.000,   1
   140,'1 ',1,   2,   2,   426.470,   126.170,     0.000,     0.000,     0.000,     0.000,   1
   141,'1 ',1,   2,   2,   159.500,    63.800,     0.000,     0.000,     0.000,     0.000,   1
   142,'1 ',1,   2,   2,    62.150,    26.950,     0.000,     0.000,     0.000,     0.000,   1
   143,'1 ',1,   2,   2,    98.450,    39.050,     0.000,     0.000,     0.000,     0.000,   1
   145,'1 ',1,   2,   2,    26.400,    15.400,     0.000,     0.000,     0.000,     0.000,   1
   148,'1 ',1,   2,   2,    69.300,    27.500,     0.000,     0.000,     0.000,     0.000,   1
   152,'1 ',1,   2,   2,    18.700,     9.900,     0.000,     0.000,     0.000,     0.000,   1
   154,'1 ',1,   2,   2,    77.000,     5.500,     0.000,     0.000,     0.000,     0.000,   1
   155,'1 ',1,   2,   2,   220.000,    55.000,     0.000,     0.000,     0.000,     0.000,   1
   156,'1 ',1,   2,   2,    82.500,    55.000,     0.000,     0.000,     0.000,     0.000,   1
   157,'1 ',1,   2,   2,   135.850,    26.730,     0.000,     0.000,     0.000,     0.000,   1
   159,'1 ',1,   2,   2,    36.300,    18.150,     0.000,     0.000,     0.000,     0.000,   1
   161,'1 ',1,   2,   2,    38.500,    16.500,     0.000,     0.000,     0.000,     0.000,   1
   162,'1 ',1,   2,   2,    93.500,    26.400,     0.000,     0.000,     0.000,     0.000,   1
   163,'1 ',1,   2,   2,     0.000,     0.440,     0.000,     0.000,     0.000,     0.000,   1
   167,'1 ',1,   2,   2,   329.890,   105.270,     0.000,     0.000,     0.000,     0.000,   1
   170,'1 ',1,   2,   2,   529.980,   225.500,     0.000,     0.000,     0.000,     0.000,   1
   171,'1 ',1,   2,   2,   839.960,   320.210,     0.000,     0.000,     0.000,     0.000,   1
   172,'1 ',1,   2,   2,    29.150,     0.000,     0.000,     0.000,     0.000,     0.000,   1
   173,'1 ',1,   2,   2,   179.850,    47.300,     0.000,     0.000,     0.000,     0.000,   1
   175,'1 ',1,   2,   2,   193.600,    91.300,     0.000,     0.000,     0.000,     0.000,   1
   176,'1 ',1,   2,   2,     5.500,     4.400,     0.000,     0.000,     0.000,     0.000,   1
   177,'1 ',1,   2,   2,    30.800,    13.200,     0.000,     0.000,     0.000,     0.000,   1
   178,'1 ',1,   2,   2,   470.140,   190.960,     0.000,     0.000,     0.000,     0.000,   1
   179,'1 ',1,   2,   2,    81.400,    31.900,     0.000,     0.000,     0.000,     0.000,   1
   180,'1 ',1,   2,   2,    76.450,    54.230,     0.000,     0.000,     0.000,     0.000,   1
   181,'1 ',1,   2,   2,    80.740,     0.000,     0.000,     0.000,     0.000,     0.000,   1
   182,'1 ',1,   2,   2,   264.770,    97.900,     0.000,     0.000,     0.000,     0.000,   1
   183,'1 ',1,   2,   2,    44.000,     4.400,     0.000,     0.000,     0.000,     0.000,   1
   184,'1 ',1,   2,   2,   150.480,    18.260,     0.000,     0.000,     0.000,     0.000,   1
   186,'1 ',1,   2,   2,    65.780,    26.730,     0.000,     0.000,     0.000,     0.000,   1
   187,'1 ',1,   2,   2,    65.780,    26.730,     0.000,     0.000,     0.000,     0.000,   1
   188,'1 ',1,   2,   2,   200.860,    47.960,     0.000,     0.000,     0.000,     0.000,   1
   189,'1 ',1,   3,   3,     7.700,     2.200,     0.000,     0.000,     0.000,     0.000,   1
   191,'1 ',1,   3,   3,   537.900,    58.300,     0.000,     0.000,     0.000,     0.000,   1
   192,'1 ',1,   3,   3,   880.000,    79.200,     0.000,     0.000,     0.000,     0.000,   1
   196,'1 ',1,   3,   3,    11.000,     3.300,     0.000,     0.000,     0.000,     0.000,   1
   197,'1 ',1,   3,   3,    47.300,    15.400,     0.000,     0.000,     0.000,     0.000,   1
   198,'1 ',1,   3,   3,    70.400,    23.100,     0.000,     0.000,     0.000,     0.000,   1
   199,'1 ',1,   3,   3,    38.500,    13.200,     0.000,     0.000,     0.000,     0.000,   1
   200,'1 ',1,   3,   3,    29.700,    13.200,     0.000,     0.000,     0.000,     0.000,   1
   201,'1 ',1,   1,   1,    45.100,    15.400,     0.000,     0.000,     0.000,     0.000,   1
   202,'1 ',1,   3,   3,    41.800,    14.300,     0.000,     0.000,     0.000,     0.000,   1
   203,'1 ',1,   3,   3,    46.200,    15.400,     0.000,     0.000,     0.000,     0.000,   1
   204,'1 ',1,   3,   3,    79.200,    26.400,     0.000,     0.000,     0.000,     0.000,   1
   205,'1 ',1,   3,   3,     0.000,    -5.500,     0.000,     0.000,     0.000,     0.000,   1
   206,'1 ',1,   3,   3,    13.200,     2.200,     0.000,     0.000,     0.000,     0.000,   1
   207,'1 ',1,   1,   1,   -23.100,   -15.620,     0.000,     0.000,     0.000,     0.000,   1
   208,'1 ',1,   3,   3,     7.700,     2.200,     0.000,     0.000,     0.000,     0.000,   1
   209,'1 ',1,   3,   3,    41.800,    14.300,     0.000,     0.000,     0.000,     0.000,   1
   211,'1 ',1,   3,   3,   105.600,     7.700,     0.000,     0.000,     0.000,     0.000,   1
   214,'1 ',1,   3,   3,    24.200,    17.600,     0.000,     0.000,     0.000,     0.000,   1
   215,'1 ',1,   3,   3,    51.700,    28.600,     0.000,     0.000,     0.000,     0.000,   1
   216,'1 ',1,   3,   3,   193.600,   115.500,     0.000,     0.000,     0.000,     0.000,   1
   217,'1 ',1,   3,   3,   110.000,    82.500,     0.000,     0.000,     0.000,     0.000,   1
   218,'1 ',1,   3,   3,   144.100,   105.600,     0.000,     0.000,     0.000,     0.000,   1
   220,'1 ',1,   3,   3,   313.500,   110.000,     0.000,     0.000,     0.000,     0.000,   1
   221,'1 ',1,   3,   3,   188.100,    77.000,     0.000,     0.000,     0.000,     0.000,   1
   222,'1 ',1,   3,   3,   360.800,   206.800,     0.000,     0.000,     0.000,     0.000,   1
   223,'1 ',1,   3,   3,   470.800,   255.200,     0.000,     0.000,     0.000,     0.000,   1
   224,'1 ',1,   3,   3,   190.300,   108.900,     0.000,     0.000,     0.000,     0.000,   1
   225,'1 ',1,   3,   3,   451.000,    44.000,     0.000,     0.000,     0.000,     0.000,   1
   227,'1 ',1,   3,   3,   591.800,   405.900,     0.000,     0.000,     0.000,     0.000,   1
   228,'1 ',1,   3,   3,   245.300,   162.800,     0.000,     0.000,     0.000,     0.000,   1
   229,'1 ',1,   3,   3,   105.600,    50.600,     0.000,     0.000,     0.000,     0.000,   1
   231,'1 ',1,   3,   3,   174.900,   117.700,     0.000,     0.000,     0.000,     0.000,   1
   232,'1 ',1,   3,   3,   492.800,   157.300,     0.000,     0.000,     0.000,     0.000,   1
   233,'1 ',1,   3,   3,   444.400,   233.200,     0.000,     0.000,     0.000,     0.000,   1
   234,'1 ',1,   3,   3,   629.200,   268.400,     0.000,     0.000,     0.000,     0.000,   1
   235,'1 ',1,   3,   3,   295.900,   172.700,     0.000,     0.000,     0.000,     0.000,   1
   238,'1 ',1,   3,   3,   280.500,   163.900,     0.000,     0.000,     0.000,     0.000,   1
   243,'1 ',1,   3,   3,     8.800,     3.300,     0.000,     0.000,     0.000,     0.000,   1
   245,'1 ',1,   3,   3,    67.100,    33.000,     0.000,     0.000,     0.000,     0.000,   1
   246,'1 ',1,   3,   3,    84.700,    36.300,     0.000,     0.000,     0.000,     0.000,   1
   247,'1 ',1,   3,   3,    67.100,    33.000,     0.000,     0.000,     0.000,     0.000,   1
   248,'1 ',1,   3,   3,    31.900,    15.400,     0.000,     0.000,     0.000,     0.000,   1
   249,'1 ',1,   3,   3,    31.900,    15.400,     0.000,     0.000,     0.000,     0.000,   1
   250,'1 ',1,   3,   3,   -25.300,   -18.700,     0.000,     0.000,     0.000,     0.000,   1
   281,'1 ',1,   3,   3,   -36.410,   -32.340,     0.000,     0.000,     0.000,     0.000,   1
   319,'1 ',1,   1,   1,   127.380,   -26.400,     0.000,     0.000,     0.000,     0.000,   1
   320,'1 ',1,   1,   1,     2.640,   -13.860,     0.000,     0.000,     0.000,     0.000,   1
   322,'1 ',1,   1,   1,     2.640,    -4.290,     0.000,     0.000,     0.000,     0.000,   1
   323,'1 ',1,   1,   1,   -16.390,    29.150,     0.000,     0.000,     0.000,     0.000,   1
   324,'1 ',1,   1,   1,    27.170,    -1.320,     0.000,     0.000,     0.000,     0.000,   1
   526,'1 ',1,   1,   1,   159.830,   -38.390,     0.000,     0.000,     0.000,     0.000,   1
   528,'1 ',1,   1,   1,    30.910,   -22.550,     0.000,     0.000,     0.000,     0.000,   1
   531,'1 ',1,   1,   1,    15.400,     2.750,     0.000,     0.000,     0.000,     0.000,   1
   552,'1 ',1,   1,   1,   -12.210,    -1.540,     0.000,     0.000,     0.000,     0.000,   1
   562,'1 ',1,   1,   1,    55.550,    19.140,     0.000,     0.000,     0.000,     0.000,   1
   609,'1 ',1,   1,   1,    32.560,     0.660,     0.000,     0.000,     0.000,     0.000,   1
   664,'1 ',1,   3,   3,  -125.070,    84.370,     0.000,     0.000,     0.000,     0.000,   1
  1190,'1 ',1,   1,   1,   110.341,    32.087,     0.000,     0.000,     0.000,     0.000,   1
  1200,'1 ',1,   1,   1,  -110.000,    37.587,     0.000,     0.000,     0.000,     0.000,   1
  9003,'1 ',1,   1,   9,     2.981,     1.034,     0.000,     0.000,     0.000,     0.000,   1
  9004,'1 ',1,   1,   9,     0.946,     0.308,     0.000,     0.000,     0.000,     0.000,   1
  9021,'1 ',1,   1,   9,     5.225,     1.716,     0.000,     0.000,     0.000,     0.000,   1
  9022,'1 ',1,   1,   9,     1.683,     0.583,     0.000,     0.000,     0.000,     0.000,   1
  9024,'1 ',1,   1,   9,     1.485,     0.517,     0.000,     0.000,     0.000,     0.000,   1
  9025,'1 ',1,   1,   9,     0.495,     0.176,     0.000,     0.000,     0.000,     0.000,   1
  9026,'1 ',1,   1,   9,     0.495,     0.176,     0.000,     0.000,     0.000,     0.000,   1
  9031,'1 ',1,   1,   9,     2.024,     0.704,     0.000,     0.000,     0.000,     0.000,   1
  9032,'1 ',1,   1,   9,     1.529,     0.528,     0.000,     0.000,     0.000,     0.000,   1
  9033,'1 ',1,   1,   9,     2.079,     0.715,     0.000,     0.000,     0.000,     0.000,   1
  9034,'1 ',1,   1,   9,     1.705,     0.594,     0.000,     0.000,     0.000,     0.000,   1
  9035,'1 ',1,   1,   9,     1.826,     0.638,     0.000,     0.000,     0.000,     0.000,   1
  9036,'1 ',1,   1,   9,     3.333,     1.100,     0.000,     0.000,     0.000,     0.000,   1
  9037,'1 ',1,   1,   9,     2.046,     0.704,     0.000,     0.000,     0.000,     0.000,   1
  9038,'1 ',1,   1,   9,     2.838,     0.979,     0.000,     0.000,     0.000,     0.000,   1
  9041,'1 ',1,   1,   9,     1.111,     0.385,     0.000,     0.000,     0.000,     0.000,   1
  9042,'1 ',1,   1,   9,     0.891,     0.308,     0.000,     0.000,     0.000,     0.000,   1
  9043,'1 ',1,   1,   9,     1.760,     0.572,     0.000,     0.000,     0.000,     0.000,   1
  9052,'1 ',1,   1,   9,    33.000,    25.300,     0.000,     0.000,     0.000,     0.000,   1
  9071,'1 ',1,   1,   9,     1.122,     0.385,     0.000,     0.000,     0.000,     0.000,   1
  9072,'1 ',1,   1,   9,     1.122,     0.385,     0.000,     0.000,     0.000,     0.000,   1
  9121,'1 ',1,   1,   9,     4.180,     1.375,     0.000,     0.000,     0.000,     0.000,   1
  9533,'1 ',1,   1,   9,     1.309,     0.451,     0.000,     0.000,     0.000,     0.000,   1
 0 /End of Load data, Begin Generator data
 10000,'1 ',    -5.500,    47.819,    52.594,   -10.000,1.01530,     0,    57.754,   0.00140,   0.12000,   0.00000,   0.00000,1.00000,1,  100.0,  9999.000, -9999.000,   1,1.0000
 10001,'1 ',    -5.500,    32.210,    35.430,   -20.000,1.02050,     0,    39.210,   0.00140,   0.12000,   0.00000,   0.00000,1.00000,1,  100.0,  9999.000, -9999.000,   1,1.0000
 10002,'1 ',   -11.000,    75.550,    83.104,   -20.000,1.00100,     0,    91.615,   0.00140,   0.12000,   0.00000,   0.00000,1.00000,1,  100.0,  9999.000, -9999.000,   1,1.0000
 10003,'1 ',     0.000,    47.885,    52.673,   -25.000,0.95830,     0,    57.462,   0.00140,   0.12000,   0.00000,   0.00000,1.00000,1,  100.0,  9999.000, -9999.000,   1,1.0000
 10004,'1 ',     0.000,    84.172,    92.579,    12.000,0.96320,     0,   100.995,   0.00140,   0.12000,   0.00000,   0.00000,1.00000,1,  100.0,  9999.000, -9999.000,   1,1.0000
 10005,'1 ',   416.250,   146.379,   240.000,  -240.000,1.02500,     0,   835.000,   0.00190,   0.33900,   0.00000,   0.00000,1.00000,1,  100.0,  9999.000, -9999.000,   1,1.0000
 10006,'1 ',   172.050,    49.620,    96.000,   -11.000,1.05200,     0,   270.000,   0.00160,   0.18500,   0.00000,   0.00000,1.00000,1,  100.0,  9999.000, -9999.000,   1,1.0000
 10007,'1 ',   321.900,    38.839,   153.000,  -153.000,1.05200,     0,   410.000,   0.00190,   0.22840,   0.00000,   0.00000,1.00000,1,  100.0,  9999.000, -9999.000,   1,1.0000
 10008,'1 ',    75.480,    -5.594,    56.000,   -30.000,1.00000,     0,   125.000,   0.00400,   0.13400,   0.00000,   0.00000,1.00000,1,  100.0,  9999.000, -9999.000,   1,1.0000
 10009,'1 ',   129.870,    39.374,    77.000,   -24.000,0.99000,     0,   270.000,   0.00160,   0.18500,   0.00000,   0.00000,1.00000,1,  100.0,  9999.000, -9999.000,   1,1.0000
 10010,'1 ',  2142.300,  1369.675,  2200.000,  -500.000,1.04350,     0,  2911.000,   0.00100,   0.19300,   0.00000,   0.00000,1.00000,1,  100.0,  9999.000, -9999.000,   1,1.0000
 10011,'1 ',   266.400,   211.334,   232.467,   -60.000,1.02330,     0,   410.000,   0.00190,   0.22840,   0.00000,   0.00000,1.00000,1,  100.0,  9999.000, -9999.000,   1,1.0000
 10012,'1 ',     0.000,   417.123,   458.821,   -25.000,1.01030,     0,   500.532,   0.00140,   0.12000,   0.00000,   0.00000,1.00000,1,  100.0,  9999.000, -9999.000,   1,1.0000
 10013,'1 ', -1017.533,   439.686,   483.647,  -125.000,1.05500,     0,  1330.156,   0.00100,   0.19300,   0.00000,   0.00000,1.00000,1,  100.0,  9999.000, -9999.000,   1,1.0000
 10014,'1 ',   311.910,    87.403,    96.145,   -50.000,1.05100,     0,   410.000,   0.00190,   0.22840,   0.00000,   0.00000,1.00000,1,  100.0,  9999.000, -9999.000,   1,1.0000
 10015,'1 ',   772.560,   177.181,   300.000,  -100.000,1.04350,     0,   911.000,   0.00100,   0.19300,   0.00000,   0.00000,1.00000,1,  100.0,  9999.000, -9999.000,   1,1.0000
 10016,'1 ',    93.240,    54.474,    59.920,   -15.000,1.05280,     0,   125.000,   0.00400,   0.13400,   0.00000,   0.00000,1.00000,1,  100.0,  9999.000, -9999.000,   1,1.0000
 10017,'1 ',   240.870,   -47.721,   100.000,   -50.000,1.05280,     0,   410.000,   0.00190,   0.22840,   0.00000,   0.00000,1.00000,1,  100.0,  9999.000, -9999.000,   1,1.0000
 10018,'1 ',   114.330,    55.440,    60.986,   -25.000,1.07350,     0,   270.000,   0.00160,   0.18500,   0.00000,   0.00000,1.00000,1,  100.0,  9999.000, -9999.000,   1,1.0000
 10019,'1 ',   412.920,   -40.765,   175.000,   -50.000,1.05350,     0,   835.000,   0.00190,   0.33900,   0.00000,   0.00000,1.00000,1,  100.0,  9999.000, -9999.000,   1,1.0000
 10020,'1 ',   239.760,    -9.896,    90.000,   -50.000,1.04350,     0,   410.000,   0.00190,   0.22840,   0.00000,   0.00000,1.00000,1,  100.0,  9999.000, -9999.000,   1,1.0000
 10021,'1 ',     0.000,    56.834,    62.514,   -10.000,0.96300,     0,    68.197,   0.00140,   0.12000,   0.00000,   0.00000,1.00000,1,  100.0,  9999.000, -9999.000,   1,1.0000
 10022,'1 ',   227.550,   135.077,   148.585,   -40.000,0.92900,     0,   410.000,   0.00190,   0.22840,   0.00000,   0.00000,1.00000,1,  100.0,  9999.000, -9999.000,   1,1.0000
 10023,'1 ',     0.000,   244.295,   268.722,   -50.000,0.98290,     0,   293.152,   0.00140,   0.12000,   0.00000,   0.00000,1.00000,1,  100.0,  9999.000, -9999.000,   1,1.0000
 10024,'1 ',   253.080,    46.142,    90.000,   -45.000,1.05220,     0,   410.000,   0.00190,   0.22840,   0.00000,   0.00000,1.00000,1,  100.0,  9999.000, -9999.000,   1,1.0000
 10025,'1 ',    93.240,    56.848,    62.534,   -15.000,1.00770,     0,   270.000,   0.00160,   0.18500,   0.00000,   0.00000,1.00000,1,  100.0,  9999.000, -9999.000,   1,1.0000
 10026,'1 ',   222.000,    46.894,    80.000,   -50.000,1.05220,     0,   410.000,   0.00190,   0.22840,   0.00000,   0.00000,1.00000,1,  100.0,  9999.000, -9999.000,   1,1.0000
 10027,'1 ',  1332.000,   333.043,   400.000,  -100.000,1.06500,     0,  1911.000,   0.00100,   0.19300,   0.00000,   0.00000,1.00000,1,  100.0,  9999.000, -9999.000,   1,1.0000
 10028,'1 ',  1332.000,   411.450,   452.593,  -100.000,1.06500,     0,  1911.000,   0.00100,   0.19300,   0.00000,   0.00000,1.00000,1,  100.0,  9999.000, -9999.000,   1,1.0000
 10029,'1 ',   527.250,    80.499,   300.000,  -300.000,1.05510,     0,   835.000,   0.00190,   0.33900,   0.00000,   0.00000,1.00000,1,  100.0,  9999.000, -9999.000,   1,1.0000
 10030,'1 ',  2190.030,   884.591,  1000.000, -1000.000,1.04350,     0,  2911.000,   0.00100,   0.19300,   0.00000,   0.00000,1.00000,1,  100.0,  9999.000, -9999.000,   1,1.0000
 10031,'1 ',   470.640,   124.413,   260.000,  -260.000,1.01500,     0,   835.000,   0.00190,   0.33900,   0.00000,   0.00000,1.00000,1,  100.0,  9999.000, -9999.000,   1,1.0000
 10032,'1 ',   301.920,    49.696,   150.000,  -150.000,1.01000,     0,   512.000,   0.00400,   0.20000,   0.00000,   0.00000,1.00000,1,  100.0,  9999.000, -9999.000,   1,1.0000
 10033,'1 ',   111.000,    76.005,    83.605,   -60.000,1.00800,     0,   270.000,   0.00160,   0.18500,   0.00000,   0.00000,1.00000,1,  100.0,  9999.000, -9999.000,   1,1.0000
 10034,'1 ',   499.500,   236.852,   320.000,  -320.000,1.00000,     0,   835.000,   0.00190,   0.33900,   0.00000,   0.00000,1.00000,1,  100.0,  9999.000, -9999.000,   1,1.0000
 10035,'1 ',   277.500,   167.874,   300.000,  -300.000,1.05000,     0,   410.000,   0.00190,   0.22840,   0.00000,   0.00000,1.00000,1,  100.0,  9999.000, -9999.000,   1,1.0000
 10036,'1 ',   336.330,   298.642,   300.000,  -300.000,1.00000,     0,   512.000,   0.00400,   0.20000,   0.00000,   0.00000,1.00000,1,  100.0,  9999.000, -9999.000,   1,1.0000
 10037,'1 ',   382.950,    58.439,   250.000,  -250.000,1.04000,     0,   835.000,   0.00190,   0.33900,   0.00000,   0.00000,1.00000,1,  100.0,  9999.000, -9999.000,   1,1.0000
 10038,'1 ',   333.000,   161.230,   500.000,  -500.000,1.00000,     0,   512.000,   0.00400,   0.20000,   0.00000,   0.00000,1.00000,1,  100.0,  9999.000, -9999.000,   1,1.0000
 10039,'1 ',   666.000,   327.308,   360.038,  -300.000,1.01650,     0,   911.000,   0.00100,   0.19300,   0.00000,   0.00000,1.00000,1,  100.0,  9999.000, -9999.000,   1,1.0000
 10040,'1 ',   277.500,   219.743,   241.717,  -200.000,1.01000,     0,   410.000,   0.00190,   0.22840,   0.00000,   0.00000,1.00000,1,  100.0,  9999.000, -9999.000,   1,1.0000
 10041,'1 ',   610.500,    72.285,   400.000,  -400.000,1.00000,     0,   911.000,   0.00100,   0.19300,   0.00000,   0.00000,1.00000,1,  100.0,  9999.000, -9999.000,   1,1.0000
 10042,'1 ',   638.006,   -13.592,   600.000,  -600.000,1.05000,     0,   911.000,   0.00100,   0.19300,   0.00000,   0.00000,1.00000,1,  100.0,  9999.000, -9999.000,   1,1.0000
 10043,'1 ',   188.700,    75.209,   100.000,    40.000,0.99300,     0,   410.000,   0.00190,   0.22840,   0.00000,   0.00000,1.00000,1,  100.0,  9999.000, -9999.000,   1,1.0000
 10044,'1 ',    93.240,    57.078,    80.000,    40.000,1.01000,     0,   270.000,   0.00160,   0.18500,   0.00000,   0.00000,1.00000,1,  100.0,  9999.000, -9999.000,   1,1.0000
 10045,'1 ',   518.370,   166.126,   210.000,  -210.000,1.05070,     0,   835.000,   0.00190,   0.33900,   0.00000,   0.00000,1.00000,1,  100.0,  9999.000, -9999.000,   1,1.0000
 10046,'1 ',   691.530,   109.158,   280.000,  -280.000,1.05070,     0,   911.000,   0.00100,   0.19300,   0.00000,   0.00000,1.00000,1,  100.0,  9999.000, -9999.000,   1,1.0000
 10047,'1 ',  1343.100,   483.387,   531.723,  -420.000,1.03230,     0,  1511.000,   0.00100,   0.19300,   0.00000,   0.00000,1.00000,1,  100.0,  9999.000, -9999.000,   1,1.0000
 10048,'1 ',   259.740,    60.153,   100.000,  -100.000,1.01450,     0,   410.000,   0.00190,   0.22840,   0.00000,   0.00000,1.00000,1,  100.0,  9999.000, -9999.000,   1,1.0000
 10049,'1 ',   412.920,   216.106,   224.000,  -224.000,1.05070,     0,   835.000,   0.00190,   0.33900,   0.00000,   0.00000,1.00000,1,  100.0,  9999.000, -9999.000,   1,1.0000
 10050,'1 ',   366.300,   397.914,   437.693,     0.000,1.05070,     0,   835.000,   0.00190,   0.33900,   0.00000,   0.00000,1.00000,1,  100.0,  9999.000, -9999.000,   1,1.0000
 10051,'1 ',   205.350,    10.821,   120.000,     0.000,1.05070,     0,   410.000,   0.00190,   0.22840,   0.00000,   0.00000,1.00000,1,  100.0,  9999.000, -9999.000,   1,1.0000
 10052,'1 ',   455.100,   118.657,   224.000,  -224.000,1.02900,     0,   835.000,   0.00190,   0.33900,   0.00000,   0.00000,1.00000,1,  100.0,  9999.000, -9999.000,   1,1.0000
 10053,'1 ',   555.000,   189.036,   200.000,  -200.000,1.05000,     0,   835.000,   0.00190,   0.33900,   0.00000,   0.00000,1.00000,1,  100.0,  9999.000, -9999.000,   1,1.0000
 10054,'1 ',    41.070,    47.164,    51.876,     0.000,1.01450,     0,   125.000,   0.00400,   0.13400,   0.00000,   0.00000,1.00000,1,  100.0,  9999.000, -9999.000,   1,1.0000
 10055,'1 ',   420.872,    57.009,    62.634,     0.000,1.05070,     0,   835.000,   0.00190,   0.33900,   0.00000,   0.00000,1.00000,1,  100.0,  9999.000, -9999.000,   1,1.0000
 10056,'1 ',    49.950,    29.135,    32.043,     0.000,0.99670,     0,   125.000,   0.00400,   0.13400,   0.00000,   0.00000,1.00000,1,  100.0,  9999.000, -9999.000,   1,1.0000
 10057,'1 ',   183.150,    98.512,   108.358,   -90.000,1.02120,     0,   410.000,   0.00190,   0.22840,   0.00000,   0.00000,1.00000,1,  100.0,  9999.000, -9999.000,   1,1.0000
 10058,'1 ',   444.000,   149.106,   150.000,  -150.000,1.01450,     0,   835.000,   0.00190,   0.33900,   0.00000,   0.00000,1.00000,1,  100.0,  9999.000, -9999.000,   1,1.0000
 10059,'1 ',   444.000,   166.542,   183.192,     0.000,1.00170,     0,   835.000,   0.00190,   0.33900,   0.00000,   0.00000,1.00000,1,  100.0,  9999.000, -9999.000,   1,1.0000
 10060,'1 ',   128.760,    98.299,   108.126,     0.000,0.98930,     0,   270.000,   0.00160,   0.18500,   0.00000,   0.00000,1.00000,1,  100.0,  9999.000, -9999.000,   1,1.0000
 10061,'1 ',  1434.120,   399.819,   600.000,  -100.000,1.05070,     0,  1511.000,   0.00100,   0.19300,   0.00000,   0.00000,1.00000,1,  100.0,  9999.000, -9999.000,   1,1.0000
 10062,'1 ',   777.000,   325.891,   358.479,  -125.000,1.05070,     0,   911.000,   0.00100,   0.19300,   0.00000,   0.00000,1.00000,1,  100.0,  9999.000, -9999.000,   1,1.0000
 10063,'1 ',   613.830,   199.136,   300.000,  -200.000,1.01450,     0,   911.000,   0.00100,   0.19300,   0.00000,   0.00000,1.00000,1,  100.0,  9999.000, -9999.000,   1,1.0000
 10064,'1 ',    -4.620,     3.646,     4.011,    -2.000,0.99450,     0,    25.000,   0.00140,   0.12000,   0.00000,   0.00000,1.00000,1,  100.0,  9999.000, -9999.000,   1,1.0000
 10065,'1 ',   -39.391,    17.710,    19.478,   -17.350,1.00000,     0,   125.000,   0.00400,   0.13400,   0.00000,   0.00000,1.00000,1,  100.0,  9999.000, -9999.000,   1,1.0000
 10066,'1 ',   -29.128,    13.354,    14.686,   -12.800,1.00000,     0,   125.000,   0.00400,   0.13400,   0.00000,   0.00000,1.00000,1,  100.0,  9999.000, -9999.000,   1,1.0000
 10067,'1 ',    55.500,    24.130,    38.000,   -38.000,1.00000,     0,   125.000,   0.00400,   0.13400,   0.00000,   0.00000,1.00000,1,  100.0,  9999.000, -9999.000,   1,1.0000
 10068,'1 ',     8.880,     4.451,     6.000,    -6.000,1.00000,     0,    25.000,   0.00140,   0.12000,   0.00000,   0.00000,1.00000,1,  100.0,  9999.000, -9999.000,   1,1.0000
 0 /End of Generator data, Begin Branch data
     1,      5,'1 ',   0.00100,   0.00600,   0.00000,    0.00,    0.00,    0.00,  0.00000,  0.00000,  0.00000,  0.00000,1,   0.00,   1,1.0000
     2,      6,'1 ',   0.00100,   0.00900,   0.00000,    0.00,    0.00,    0.00,  0.00000,  0.00000,  0.00000,  0.00000,1,   0.00,   1,1.0000
     2,      8,'1 ',   0.00600,   0.02700,   0.05400,    0.00,    0.00,    0.00,  0.00000,  0.00000,  0.00000,  0.00000,1,   0.00,   1,1.0000
     3,      7,'1 ',   0.00000,   0.00300,   0.00000,    0.00,    0.00,    0.00,  0.00000,  0.00000,  0.00000,  0.00000,1,   0.00,   1,1.0000
     3,     19,'1 ',   0.00800,   0.06900,   0.13900,    0.00,    0.00,    0.00,  0.00000,  0.00000,  0.00000,  0.00000,1,   0.00,   1,1.0000
     3,    150,'1 ',   0.00100,   0.00700,   0.00000,    0.00,    0.00,    0.00,  0.00000,  0.00000,  0.00000,  0.00000,1,   0.00,   1,1.0000
     4,     16,'1 ',   0.00200,   0.01900,   1.12700,    0.00,    0.00,    0.00,  0.00000,  0.00000,  0.00000,  0.00000,1,   0.00,   1,1.0000
     5,      9,'1 ',   0.00600,   0.02900,   0.01800,    0.00,    0.00,    0.00,  0.00000,  0.00000,  0.00000,  0.00000,1,   0.00,   1,1.0000
     7,     12,'1 ',   0.00100,   0.00900,   0.07000,    0.00,    0.00,    0.00,  0.00000,  0.00000,  0.00000,  0.00000,1,   0.00,   1,1.0000
     7,    131,'1 ',   0.00100,   0.00700,   0.01400,    0.00,    0.00,    0.00,  0.00000,  0.00000,  0.00000,  0.00000,1,   0.00,   1,1.0000
     8,     11,'1 ',   0.01300,   0.05950,   0.03300,    0.00,    0.00,    0.00,  0.00000,  0.00000,  0.00000,  0.00000,1,   0.00,   1,1.0000
     8,     14,'1 ',   0.01300,   0.04200,   0.08100,    0.00,    0.00,    0.00,  0.00000,  0.00000,  0.00000,  0.00000,1,   0.00,   1,1.0000
     9,     11,'1 ',   0.00600,   0.02700,   0.01300,    0.00,    0.00,    0.00,  0.00000,  0.00000,  0.00000,  0.00000,1,   0.00,   1,1.0000
    11,     13,'1 ',   0.00800,   0.03400,   0.01800,    0.00,    0.00,    0.00,  0.00000,  0.00000,  0.00000,  0.00000,1,   0.00,   1,1.0000
    12,     21,'1 ',   0.00200,   0.01500,   0.11800,    0.00,    0.00,    0.00,  0.00000,  0.00000,  0.00000,  0.00000,1,   0.00,   1,1.0000
    13,     20,'1 ',   0.00600,   0.03400,   0.01600,    0.00,    0.00,    0.00,  0.00000,  0.00000,  0.00000,  0.00000,1,   0.00,   1,1.0000
    14,     15,'1 ',   0.01400,   0.04200,   0.09700,    0.00,    0.00,    0.00,  0.00000,  0.00000,  0.00000,  0.00000,1,   0.00,   1,1.0000
    15,     37,'1 ',   0.06500,   0.24800,   0.12100,    0.00,    0.00,    0.00,  0.00000,  0.00000,  0.00000,  0.00000,1,   0.00,   1,1.0000
    15,     89,'1 ',   0.09900,   0.24800,   0.03500,    0.00,    0.00,    0.00,  0.00000,  0.00000,  0.00000,  0.00000,1,   0.00,   1,1.0000
    15,     90,'1 ',   0.09600,   0.36300,   0.04800,    0.00,    0.00,    0.00,  0.00000,  0.00000,  0.00000,  0.00000,1,   0.00,   1,1.0000
    16,     42,'1 ',   0.00200,   0.02200,   1.28000,    0.00,    0.00,    0.00,  0.00000,  0.00000,  0.00000,  0.00000,1,   0.00,   1,1.0000
    19,     21,'1 ',   0.00200,   0.01800,   0.03600,    0.00,    0.00,    0.00,  0.00000,  0.00000,  0.00000,  0.00000,1,   0.00,   1,1.0000
    19,     87,'1 ',   0.01300,   0.08000,   0.15100,    0.00,    0.00,    0.00,  0.00000,  0.00000,  0.00000,  0.00000,1,   0.00,   1,1.0000
    20,     22,'1 ',   0.01600,   0.03300,   0.01500,    0.00,    0.00,    0.00,  0.00000,  0.00000,  0.00000,  0.00000,1,   0.00,   1,1.0000
    20,     27,'1 ',   0.06900,   0.18600,   0.09800,    0.00,    0.00,    0.00,  0.00000,  0.00000,  0.00000,  0.00000,1,   0.00,   1,1.0000
    21,     24,'1 ',   0.00400,   0.03400,   0.28000,    0.00,    0.00,    0.00,  0.00000,  0.00000,  0.00000,  0.00000,1,   0.00,   1,1.0000
    22,     23,'1 ',   0.05200,   0.11100,   0.05000,    0.00,    0.00,    0.00,  0.00000,  0.00000,  0.00000,  0.00000,1,   0.00,   1,1.0000
    23,     25,'1 ',   0.01900,   0.03900,   0.01800,    0.00,    0.00,    0.00,  0.00000,  0.00000,  0.00000,  0.00000,1,   0.00,   1,1.0000
    24,    319,'1 ',   0.00700,   0.06800,   0.13400,    0.00,    0.00,    0.00,  0.00000,  0.00000,  0.00000,  0.00000,1,   0.00,   1,1.0000
    25,     26,'1 ',   0.03600,   0.07100,   0.03400,    0.00,    0.00,    0.00,  0.00000,  0.00000,  0.00000,  0.00000,1,   0.00,   1,1.0000
    26,     27,'1 ',   0.04500,   0.12000,   0.06500,    0.00,    0.00,    0.00,  0.00000,  0.00000,  0.00000,  0.00000,1,   0.00,   1,1.0000
    26,    320,'1 ',   0.04300,   0.13000,   0.01400,    0.00,    0.00,    0.00,  0.00000,  0.00000,  0.00000,  0.00000,1,   0.00,   1,1.0000
    33,     34,'1 ',   0.00000,   0.06300,   0.00000,    0.00,    0.00,    0.00,  0.00000,  0.00000,  0.00000,  0.00000,1,   0.00,   1,1.0000
    33,     38,'1 ',   0.00250,   0.01200,   0.01300,    0.00,    0.00,    0.00,  0.00000,  0.00000,  0.00000,  0.00000,1,   0.00,   1,1.0000
    33,     40,'1 ',   0.00600,   0.02900,   0.02000,    0.00,    0.00,    0.00,  0.00000,  0.00000,  0.00000,  0.00000,1,   0.00,   1,1.0000
    33,     41,'1 ',   0.00700,   0.04300,   0.02600,    0.00,    0.00,    0.00,  0.00000,  0.00000,  0.00000,  0.00000,1,   0.00,   1,1.0000
    34,     42,'1 ',   0.00100,   0.00800,   0.04200,    0.00,    0.00,    0.00,  0.00000,  0.00000,  0.00000,  0.00000,1,   0.00,   1,1.0000
    35,     72,'1 ',   0.01200,   0.06000,   0.00800,    0.00,    0.00,    0.00,  0.00000,  0.00000,  0.00000,  0.00000,1,   0.00,   1,1.0000
    35,     76,'1 ',   0.00600,   0.01400,   0.00200,    0.00,    0.00,    0.00,  0.00000,  0.00000,  0.00000,  0.00000,1,   0.00,   1,1.0000
    35,     77,'1 ',   0.01000,   0.02900,   0.00300,    0.00,    0.00,    0.00,  0.00000,  0.00000,  0.00000,  0.00000,1,   0.00,   1,1.0000
    36,     88,'1 ',   0.00400,   0.02700,   0.04300,    0.00,    0.00,    0.00,  0.00000,  0.00000,  0.00000,  0.00000,1,   0.00,   1,1.0000
    37,     38,'1 ',   0.00800,   0.04700,   0.00800,    0.00,    0.00,    0.00,  0.00000,  0.00000,  0.00000,  0.00000,1,   0.00,   1,1.0000
    37,     40,'1 ',   0.02200,   0.06400,   0.00700,    0.00,    0.00,    0.00,  0.00000,  0.00000,  0.00000,  0.00000,1,   0.00,   1,1.0000
    37,     41,'1 ',   0.01000,   0.03600,   0.02000,    0.00,    0.00,    0.00,  0.00000,  0.00000,  0.00000,  0.00000,1,   0.00,   1,1.0000
    37,     49,'1 ',   0.01700,   0.08100,   0.04800,    0.00,    0.00,    0.00,  0.00000,  0.00000,  0.00000,  0.00000,1,   0.00,   1,1.0000
    37,     89,'1 ',   0.10200,   0.25400,   0.03300,    0.00,    0.00,    0.00,  0.00000,  0.00000,  0.00000,  0.00000,1,   0.00,   1,1.0000
    37,     90,'1 ',   0.04700,   0.12700,   0.01600,    0.00,    0.00,    0.00,  0.00000,  0.00000,  0.00000,  0.00000,1,   0.00,   1,1.0000
    38,     41,'1 ',   0.00800,   0.03700,   0.02000,    0.00,    0.00,    0.00,  0.00000,  0.00000,  0.00000,  0.00000,1,   0.00,   1,1.0000
    38,     43,'1 ',   0.03200,   0.08700,   0.04000,    0.00,    0.00,    0.00,  0.00000,  0.00000,  0.00000,  0.00000,1,   0.00,   1,1.0000
    39,     42,'1 ',   0.00060,   0.00640,   0.40400,    0.00,    0.00,    0.00,  0.00000,  0.00000,  0.00000,  0.00000,1,   0.00,   1,1.0000
    40,     48,'1 ',   0.02600,   0.15400,   0.02200,    0.00,    0.00,    0.00,  0.00000,  0.00000,  0.00000,  0.00000,1,   0.00,   1,1.0000
    41,     42,'1 ',   0.00000,   0.02900,   0.00000,    0.00,    0.00,    0.00,  0.00000,  0.00000,  0.00000,  0.00000,1,   0.00,   1,1.0000
    41,     49,'1 ',   0.06500,   0.19100,   0.02000,    0.00,    0.00,    0.00,  0.00000,  0.00000,  0.00000,  0.00000,1,   0.00,   1,1.0000
    41,     51,'1 ',   0.03100,   0.08900,   0.03600,    0.00,    0.00,    0.00,  0.00000,  0.00000,  0.00000,  0.00000,1,   0.00,   1,1.0000
    42,     46,'1 ',   0.00200,   0.01400,   0.80600,    0.00,    0.00,    0.00,  0.00000,  0.00000,  0.00000,  0.00000,1,   0.00,   1,1.0000
    43,     44,'1 ',   0.02600,   0.07200,   0.03500,    0.00,    0.00,    0.00,  0.00000,  0.00000,  0.00000,  0.00000,1,   0.00,   1,1.0000
    43,     48,'1 ',   0.09500,   0.26200,   0.03200,    0.00,    0.00,    0.00,  0.00000,  0.00000,  0.00000,  0.00000,1,   0.00,   1,1.0000
    43,     53,'1 ',   0.01300,   0.03900,   0.01600,    0.00,    0.00,    0.00,  0.00000,  0.00000,  0.00000,  0.00000,1,   0.00,   1,1.0000
    44,     47,'1 ',   0.02700,   0.08400,   0.03900,    0.00,    0.00,    0.00,  0.00000,  0.00000,  0.00000,  0.00000,1,   0.00,   1,1.0000
    44,     54,'1 ',   0.02800,   0.08400,   0.03700,    0.00,    0.00,    0.00,  0.00000,  0.00000,  0.00000,  0.00000,1,   0.00,   1,1.0000
    45,     60,'1 ',   0.00700,   0.04100,   0.31200,    0.00,    0.00,    0.00,  0.00000,  0.00000,  0.00000,  0.00000,1,   0.00,   1,1.0000
    45,     74,'1 ',   0.00900,   0.05400,   0.41100,    0.00,    0.00,    0.00,  0.00000,  0.00000,  0.00000,  0.00000,1,   0.00,   1,1.0000
    46,     81,'1 ',   0.00500,   0.04200,   0.69000,    0.00,    0.00,    0.00,  0.00000,  0.00000,  0.00000,  0.00000,1,   0.00,   1,1.0000
    47,     73,'1 ',   0.05200,   0.14500,   0.07300,    0.00,    0.00,    0.00,  0.00000,  0.00000,  0.00000,  0.00000,1,   0.00,   1,1.0000
    47,    113,'1 ',   0.04300,   0.11800,   0.01300,    0.00,    0.00,    0.00,  0.00000,  0.00000,  0.00000,  0.00000,1,   0.00,   1,1.0000
    48,    107,'1 ',   0.02500,   0.06200,   0.00700,    0.00,    0.00,    0.00,  0.00000,  0.00000,  0.00000,  0.00000,1,   0.00,   1,1.0000
    49,     51,'1 ',   0.03100,   0.09400,   0.04300,    0.00,    0.00,    0.00,  0.00000,  0.00000,  0.00000,  0.00000,1,   0.00,   1,1.0000
    51,     52,'1 ',   0.03700,   0.10900,   0.04900,    0.00,    0.00,    0.00,  0.00000,  0.00000,  0.00000,  0.00000,1,   0.00,   1,1.0000
    52,     55,'1 ',   0.02700,   0.08000,   0.03600,    0.00,    0.00,    0.00,  0.00000,  0.00000,  0.00000,  0.00000,1,   0.00,   1,1.0000
    53,     54,'1 ',   0.02500,   0.07300,   0.03500,    0.00,    0.00,    0.00,  0.00000,  0.00000,  0.00000,  0.00000,1,   0.00,   1,1.0000
    54,     55,'1 ',   0.03500,   0.10300,   0.04700,    0.00,    0.00,    0.00,  0.00000,  0.00000,  0.00000,  0.00000,1,   0.00,   1,1.0000
    55,     57,'1 ',   0.06500,   0.16900,   0.08200,    0.00,    0.00,    0.00,  0.00000,  0.00000,  0.00000,  0.00000,1,   0.00,   1,1.0000
    57,     58,'1 ',   0.04600,   0.08000,   0.03600,    0.00,    0.00,    0.00,  0.00000,  0.00000,  0.00000,  0.00000,1,   0.00,   1,1.0000
    57,     63,'1 ',   0.15900,   0.53700,   0.07100,    0.00,    0.00,    0.00,  0.00000,  0.00000,  0.00000,  0.00000,1,   0.00,   1,1.0000
    58,     59,'1 ',   0.00900,   0.02600,   0.00500,    0.00,    0.00,    0.00,  0.00000,  0.00000,  0.00000,  0.00000,1,   0.00,   1,1.0000
    59,     61,'1 ',   0.00200,   0.01300,   0.01500,    0.00,    0.00,    0.00,  0.00000,  0.00000,  0.00000,  0.00000,1,   0.00,   1,1.0000
    60,     62,'1 ',   0.00900,   0.06500,   0.48500,    0.00,    0.00,    0.00,  0.00000,  0.00000,  0.00000,  0.00000,1,   0.00,   1,1.0000
    62,     64,'1 ',   0.01600,   0.10500,   0.20300,    0.00,    0.00,    0.00,  0.00000,  0.00000,  0.00000,  0.00000,1,   0.00,   1,1.0000
...